Version 4
SHEET 1 1704 680
WIRE -192 -432 -192 -480
WIRE -48 -432 -48 -480
WIRE 112 -432 112 -480
WIRE 288 -432 288 -480
WIRE 464 -432 464 -480
WIRE -512 -416 -512 -448
WIRE -384 -416 -384 -448
WIRE -512 -320 -512 -336
WIRE -384 -320 -384 -336
WIRE -192 -304 -192 -352
WIRE -48 -304 -48 -352
WIRE 112 -304 112 -352
WIRE 288 -304 288 -352
WIRE 464 -304 464 -352
WIRE -1904 -160 -1968 -160
WIRE -1680 -160 -1824 -160
WIRE -1440 -160 -1680 -160
WIRE -1232 -160 -1360 -160
WIRE -1024 -160 -1232 -160
WIRE -832 -160 -944 -160
WIRE -592 -160 -832 -160
WIRE -368 -160 -512 -160
WIRE -144 -160 -368 -160
WIRE 80 -160 -64 -160
WIRE 368 -160 80 -160
WIRE 528 -160 448 -160
WIRE -1232 -96 -1232 -160
WIRE -368 -96 -368 -160
WIRE -1680 -80 -1680 -160
WIRE -1136 -80 -1184 -80
WIRE -832 -80 -832 -160
WIRE -272 -80 -320 -80
WIRE 80 -80 80 -160
WIRE 528 -80 528 -160
WIRE 592 -80 528 -80
WIRE -1968 -64 -1968 -160
WIRE -1584 -64 -1632 -64
WIRE -736 -64 -784 -64
WIRE 176 -64 128 -64
WIRE -1968 -16 -1968 -64
WIRE -1184 48 -1184 -32
WIRE -320 48 -320 -32
WIRE -1632 64 -1632 -16
WIRE -784 64 -784 -16
WIRE 128 64 128 -16
WIRE 352 144 352 128
WIRE -1968 160 -1968 64
WIRE 384 160 384 128
WIRE -1680 192 -1680 0
WIRE -1232 192 -1232 -16
WIRE -1232 192 -1680 192
WIRE -832 192 -832 0
WIRE -832 192 -1232 192
WIRE -368 192 -368 -16
WIRE -368 192 -832 192
WIRE 80 192 80 0
WIRE 80 192 -368 192
WIRE 336 192 80 192
WIRE 528 208 528 -80
WIRE 528 208 448 208
WIRE 576 208 528 208
WIRE 336 224 176 224
WIRE 352 288 352 272
WIRE 384 288 384 256
WIRE 176 368 176 224
FLAG -512 -320 0
FLAG -384 -320 0
FLAG -512 -448 VCC
FLAG -384 -448 -VCC
FLAG 384 288 0
FLAG 352 128 VCC
FLAG 384 128 VCC
FLAG 352 288 -VCC
FLAG 576 208 Vout
FLAG -1968 160 0
FLAG -192 -480 S1
FLAG -48 -480 S2
FLAG 112 -480 S3
FLAG 288 -480 S4
FLAG 464 -480 S5
FLAG -192 -304 0
FLAG -48 -304 0
FLAG 112 -304 0
FLAG 288 -304 0
FLAG 464 -304 0
FLAG 128 64 0
FLAG 176 -64 S1
FLAG -320 48 0
FLAG -272 -80 S2
FLAG -784 64 0
FLAG -736 -64 S3
FLAG -1184 48 0
FLAG -1136 -80 S4
FLAG -1632 64 0
FLAG -1584 -64 S5
FLAG 592 -80 Vout
IOPIN 592 -80 Out
FLAG 176 368 0
FLAG -1968 -64 in
DATAFLAG -368 -160 ""
DATAFLAG 128 -160 ""
DATAFLAG 528 128 ""
DATAFLAG -832 -160 ""
DATAFLAG -1232 -160 ""
DATAFLAG -1648 -160 ""
SYMBOL OpAmps\\LT6018 384 208 R0
SYMATTR InstName U1
SYMBOL voltage -512 -432 R0
WINDOW 123 0 0 Left 0
WINDOW 39 0 0 Left 0
SYMATTR InstName V1
SYMATTR Value 5
SYMBOL voltage -384 -432 R0
WINDOW 123 0 0 Left 0
WINDOW 39 0 0 Left 0
SYMATTR InstName V2
SYMATTR Value -5
SYMBOL voltage -1968 -32 R0
WINDOW 123 24 124 Left 2
WINDOW 39 0 0 Left 0
WINDOW 3 24 44 Left 2
SYMATTR Value2 AC 1
SYMATTR Value SINE(0 675m 5k)
SYMATTR InstName Vin
SYMBOL res -48 -176 R90
WINDOW 0 0 56 VBottom 2
WINDOW 3 32 56 VTop 2
SYMATTR InstName R1
SYMATTR Value 0.621k
SYMBOL res -496 -176 R90
WINDOW 0 0 56 VBottom 2
WINDOW 3 32 56 VTop 2
SYMATTR InstName R2
SYMATTR Value 0.55k
SYMBOL res -928 -176 R90
WINDOW 0 0 56 VBottom 2
WINDOW 3 32 56 VTop 2
SYMATTR InstName R3
SYMATTR Value 0.484k
SYMBOL res -1344 -176 R90
WINDOW 0 0 56 VBottom 2
WINDOW 3 32 56 VTop 2
SYMATTR InstName R4
SYMATTR Value 0.42k
SYMBOL res -1808 -176 R90
WINDOW 0 0 56 VBottom 2
WINDOW 3 32 56 VTop 2
SYMATTR InstName R5
SYMATTR Value 2k
SYMBOL res 464 -176 R90
WINDOW 0 0 56 VBottom 2
WINDOW 3 32 56 VTop 2
SYMATTR InstName R0
SYMATTR Value 9.08k
SYMBOL voltage -192 -448 R0
WINDOW 123 0 0 Left 0
WINDOW 39 0 0 Left 0
SYMATTR InstName V3
SYMATTR Value 0
SYMBOL voltage -48 -448 R0
WINDOW 123 0 0 Left 0
WINDOW 39 0 0 Left 0
SYMATTR InstName V4
SYMATTR Value 0
SYMBOL voltage 112 -448 R0
WINDOW 123 0 0 Left 0
WINDOW 39 0 0 Left 0
SYMATTR InstName V5
SYMATTR Value 0
SYMBOL voltage 288 -448 R0
WINDOW 123 0 0 Left 0
WINDOW 39 0 0 Left 0
SYMATTR InstName V6
SYMATTR Value 0
SYMBOL voltage 464 -448 R0
WINDOW 123 0 0 Left 0
WINDOW 39 0 0 Left 0
SYMATTR InstName V7
SYMATTR Value 5
SYMBOL sw -368 0 R180
SYMATTR InstName S2
SYMATTR Value MYSW
SYMBOL sw -832 16 R180
SYMATTR InstName S3
SYMATTR Value MYSW
SYMBOL sw -1232 0 R180
SYMATTR InstName S4
SYMATTR Value MYSW
SYMBOL sw -1680 16 R180
SYMATTR InstName S5
SYMATTR Value MYSW
SYMBOL sw 80 16 R180
SYMATTR InstName S1
SYMATTR Value MYSW
TEXT -1152 -464 Left 2 !.op
TEXT -1144 -424 Left 2 !.FOUR 5khz 5 V(Vout)
TEXT -1144 -368 Left 2 !;ac dec 100 1 10Meg
TEXT -744 360 Left 2 !.model MYSW SW(Ron=1m Roff=1Meg Vt=0.5 Vh=0))
TEXT -1536 -360 Left 2 !.tran 10m
